/*--------------------------------*- C++ -*----------------------------------*\
| Generated by Rekon labs CFD                                           |
\*---------------------------------------------------------------------------*/
FoamFile
{
    version     2.0;
    format      ascii;
    class       dictionary;
    object      transportProperties;
}

transportModel  Newtonian;
nu              {{ "%.6e" | format(nu) }};
