/*--------------------------------*- C++ -*----------------------------------*\
| Generated by Rekon labs CFD                                           |
\*---------------------------------------------------------------------------*/
FoamFile
{
    version     2.0;
    format      ascii;
    class       dictionary;
    object      blockMeshDict;
}

convertToMeters 1;

vertices
(
    ( {{ xmin }} {{ ymin }} {{ zmin }} )   // 0
    ( {{ xmax }} {{ ymin }} {{ zmin }} )   // 1
    ( {{ xmax }} {{ ymax }} {{ zmin }} )   // 2
    ( {{ xmin }} {{ ymax }} {{ zmin }} )   // 3
    ( {{ xmin }} {{ ymin }} {{ zmax }} )   // 4
    ( {{ xmax }} {{ ymin }} {{ zmax }} )   // 5
    ( {{ xmax }} {{ ymax }} {{ zmax }} )   // 6
    ( {{ xmin }} {{ ymax }} {{ zmax }} )   // 7
);

blocks
(
    hex (0 1 2 3 4 5 6 7) ( {{ bg_cells_x }} {{ bg_cells_y }} {{ bg_cells_z }} ) simpleGrading (1 1 1)
);

boundary
(
    inlet
    {
        type patch;
        faces ( (0 4 7 3) );
    }
    outlet
    {
        type patch;
        faces ( (1 5 6 2) );
    }
    top
    {
        type symmetryPlane;
        faces ( (4 5 6 7) );
    }
    bottom
    {
        type symmetryPlane;
        faces ( (0 1 2 3) );
    }
    sides
    {
        type symmetry;
        faces
        (
            (0 1 5 4)
            (3 2 6 7)
        );
    }
);
