/*--------------------------------*- C++ -*----------------------------------*\
| Generated by Rekon labs CFD                                           |
\*---------------------------------------------------------------------------*/
FoamFile
{
    version     2.0;
    format      ascii;
    class       dictionary;
    object      decomposeParDict;
}

numberOfSubdomains  {{ n_cores }};
method              scotch;
