/*--------------------------------*- C++ -*----------------------------------*\
| Generated by Rekon labs CFD                                           |
\*---------------------------------------------------------------------------*/
FoamFile
{
    version     2.0;
    format      ascii;
    class       dictionary;
    object      meshDict;
}

surfaceFile "aircraft.stl";

maxCellSize {{ cfmesh_cell_size }};

boundaryCellSize {{ cfmesh_cell_size / 2.0 }};

localRefinement
{
    aircraft
    {
        additionalRefinementLevels {{ ref_min }};
    }
}

renameBoundary
{
    newPatchNames
    {
        aircraft { type wall; }
    }
}

keepCellsIntoLayers true;
keepCellsIntoSurfaces true;

objectRefinements
{
}
