/*--------------------------------*- C++ -*----------------------------------*\
| Generated by Rekon labs CFD                                           |
\*---------------------------------------------------------------------------*/
FoamFile
{
    version     2.0;
    format      ascii;
    class       dictionary;
    object      snappyHexMeshDict;
}

castellatedMesh  true;
snap             true;
addLayers        true;

geometry
{
    aircraft.stl
    {
        type triSurfaceMesh;
        name aircraft;
    }
}

castellatedMeshControls
{
    maxLocalCells        1000000;
    maxGlobalCells       2000000;
    minRefinementCells   10;
    maxLoadUnbalance     0.10;
    nCellsBetweenLevels  3;
    resolveFeatureAngle  30;

    features
    (
        { file "aircraft.eMesh"; level {{ ref_min }}; }
    );

    refinementSurfaces
    {
        aircraft
        {
            level ( {{ ref_min }} {{ ref_max }} );
            patchInfo { type wall; }
        }
    }

    refinementRegions {}

    // Point inside the mesh domain but NOT inside the aircraft geometry
    // Placed far downstream (95% toward xmax) at domain centre in Y and Z
    locationInMesh ( {{ "%.4f" % (xmin * 0.05 + xmax * 0.95) }} {{ "%.4f" % ((ymin + ymax) / 2.0) }} {{ "%.4f" % ((zmin + zmax) / 2.0) }} );

    allowFreeStandingZoneFaces true;
}

snapControls
{
    nSmoothPatch             3;
    tolerance                2.0;
    nSolveIter               30;
    nRelaxIter               5;
    nFeatureSnapIter         10;
    implicitFeatureSnap      false;
    explicitFeatureSnap      true;
    multiRegionFeatureSnap   false;
}

addLayersControls
{
    relativeSizes             true;
    expansionRatio            1.2;
    finalLayerThickness       0.3;
    minThickness              0.1;
    nGrow                     0;
    featureAngle              60;
    slipFeatureAngle          30;
    nRelaxIter                3;
    nSmoothSurfaceNormals     1;
    nSmoothNormals            3;
    nSmoothThickness          10;
    maxFaceThicknessRatio     0.5;
    maxThicknessToMedialRatio 0.3;
    minMedialAxisAngle        90;
    nBufferCellsNoExtrude     0;
    nLayerIter                50;

    layers
    {
        aircraft
        {
            nSurfaceLayers {{ n_layers }};
        }
    }
}

meshQualityControls
{
    maxNonOrtho          65;
    maxBoundarySkewness  20;
    maxInternalSkewness  4;
    maxConcave           80;
    minVol               1e-13;
    minTetQuality        1e-15;
    minArea              -1;
    minTwist             0.02;
    minDeterminant       0.001;
    minFaceWeight        0.05;
    minVolRatio          0.01;
    minTriangleTwist     -1;
    nSmoothScale         4;
    errorReduction       0.75;
}

writeFlags ( scalarLevels layerSets layerFields );
mergeTolerance 1e-6;
