/*--------------------------------*- C++ -*----------------------------------*\
| Generated by OpenFOAM RC CFD GUI                                           |
\*---------------------------------------------------------------------------*/
FoamFile
{
    version     2.0;
    format      ascii;
    class       dictionary;
    object      surfaceFeaturesDict;
}

surfaces    ("aircraft.stl");

includedAngle   150;

subsetFeatures
{
    nonManifoldEdges    no;
    openEdges           yes;
}
