/*--------------------------------*- C++ -*----------------------------------*\
| Generated by OpenFOAM RC CFD GUI                                           |
\*---------------------------------------------------------------------------*/
FoamFile
{
    version     2.0;
    format      ascii;
    class       dictionary;
    object      surfaceFeatureExtractDict;
}

aircraft.stl
{
    extractionMethod    extractFromSurface;
    extractFromSurfaceCoeffs
    {
        includedAngle 150;
    }
    writeObj yes;
}
