/*--------------------------------*- C++ -*----------------------------------*\
| Generated by OpenFOAM RC CFD GUI                                           |
\*---------------------------------------------------------------------------*/
FoamFile
{
    version     2.0;
    format      ascii;
    class       volScalarField;
    object      k;
}

dimensions      [ 0 2 -2 0 0 0 0 ];
internalField   uniform {{ "%.6e" | format(k_init) }};

boundaryField
{
    inlet
    {
        type        fixedValue;
        value       uniform {{ "%.6e" | format(k_init) }};
    }
    outlet
    {
        type        zeroGradient;
    }
    top
    {
        type        symmetryPlane;
    }
    bottom
    {
        type        symmetryPlane;
    }
    sides
    {
        type        symmetry;
    }
    aircraft
    {
        type        kqRWallFunction;
        value       uniform {{ "%.6e" | format(k_init) }};
    }
}
