/*--------------------------------*- C++ -*----------------------------------*\
| Generated by OpenFOAM RC CFD GUI                                           |
\*---------------------------------------------------------------------------*/
FoamFile
{
    version     2.0;
    format      ascii;
    class       volScalarField;
    object      p;
}

// Kinematic pressure p/rho — dimensions [m²/s²]
dimensions      [ 0 2 -2 0 0 0 0 ];
internalField   uniform 0;

boundaryField
{
    inlet
    {
        type        zeroGradient;
    }
    outlet
    {
        type        fixedValue;
        value       uniform 0;
    }
    top
    {
        type        symmetryPlane;
    }
    bottom
    {
        type        symmetryPlane;
    }
    sides
    {
        type        symmetry;
    }
    aircraft
    {
        type        zeroGradient;
    }
}
